data/state_estimation/SE_PT2050_W/state_estimation_PT2050_W_t17.csv
bus,vm_pu,va_degree,p_mw,q_mvar
1,1.047257,0.114455,0.032064,-7.269103
2,1.044770,0.207359,0.072382,-43.521347
3,1.041736,0.183305,0.036887,-8.565180
4,1.036127,-0.033528,-0.019857,-54.574085
5,1.036823,0.131282,-97.923045,26.757079
6,1.035687,0.148899,0.051498,6.967020
7,1.033253,-0.054524,-0.064608,22.559563
8,1.004380,-0.016273,0.032921,0.017449
9,1.024352,-0.100548,0.047332,0.093748
10,1.034658,-0.079042,-97.789120,-0.003511
11,1.017021,-0.121777,-1.511583,0.179022
12,1.021198,-0.089830,-0.087831,0.021994
13,1.021596,-0.115130,-5.688565,-1.837698
14,1.024282,-0.098335,0.036865,0.032059
15,1.037831,-0.037415,-0.007174,0.019338
16,1.024597,0.195478,0.031082,0.051381
17,1.027091,0.067107,-0.032437,-0.046035
18,1.024051,0.068370,0.005811,-0.027620
19,1.009076,-0.181169,0.067899,-0.166235
20,1.013039,-0.134787,0.035115,0.063527
21,1.021207,0.052567,-0.029972,0.083662
22,1.030849,-0.057075,100.487970,-6.976549
23,1.014039,-0.109486,0.090945,0.030978
24,1.021093,0.194383,-97.851539,-0.017929
25,1.019342,0.055112,-97.922523,0.017048
26,1.036998,-0.061864,-4.909420,-0.489268
27,1.032189,-0.071393,0.004817,0.555818
28,1.031217,-0.056157,-0.218015,0.294834
29,1.026679,-0.066851,0.001485,0.022343
30,1.033498,0.088989,31.000970,24.139085
31,1.017261,0.210518,0.083006,-0.067585
32,1.030708,0.087485,0.064130,-0.029261
33,1.035387,0.090332,0.049548,0.008280
34,1.023932,-0.070023,0.034042,-0.076553
35,1.005638,0.089348,0.052216,-0.011661
36,1.014979,-0.014497,0.073320,0.044854
37,1.021697,-0.081303,0.020351,-0.039043
38,1.025607,0.098260,0.022612,-0.040086
39,1.023497,0.076525,0.072468,0.044140
40,1.034168,0.148810,-0.036407,-0.043113
41,1.025558,0.089204,0.125239,-0.042051
42,1.022524,0.139545,0.003766,-0.024997
43,1.021433,-0.093666,0.013720,0.058708
44,1.026922,0.093381,0.005500,0.021590
45,1.022015,-0.008436,0.106976,0.092568
46,1.022547,-0.048759,0.016749,0.034880
47,1.031211,0.169922,-0.054423,0.051651
48,1.020404,0.066338,-0.027871,0.016863
49,1.029451,0.103997,0.114654,-0.017351
50,1.022096,-0.080001,-97.834562,0.029819
51,1.033284,0.146667,0.019745,0.018534
52,1.026885,0.042101,0.039408,0.063240
53,1.026056,0.087956,-0.025722,-0.029203
54,1.040224,0.260262,-0.034512,0.077429
55,1.020915,-0.096467,-0.031544,0.052577
56,1.021499,-0.101002,0.057558,0.016411
57,1.028713,0.110198,-0.082386,0.050240
58,1.020234,-0.098045,0.087995,0.023979
59,1.022917,-0.084903,-0.017930,-0.001749
60,1.030136,0.124859,0.006189,0.025343
61,1.031269,0.172526,89.978509,9.661612
62,1.022479,0.207550,-0.089900,0.057967
63,1.039633,0.236977,0.037442,0.001276
64,1.016411,-0.046565,-0.044462,-0.051277
65,1.028592,0.174022,-0.069854,0.001867
66,1.031171,0.127123,0.005367,-0.016568
67,1.029677,0.123362,-1.780517,0.089344
68,1.025086,0.087329,0.023980,0.022784
69,1.024300,0.080840,0.039202,-0.018012
70,1.029805,0.113580,-0.023455,-0.022299
71,1.021797,0.070456,0.106069,-0.066686
72,1.016314,0.210108,0.024138,-0.057723
73,1.032447,0.217182,0.115784,0.002918
74,1.021926,-0.042025,0.055569,0.018225
75,1.029663,0.194993,-97.898153,-0.012542
76,1.019714,-0.097031,0.093468,0.006138
77,1.035329,0.235181,0.002643,0.009040
78,1.021141,0.117311,-0.073918,0.082922
79,1.032134,0.198822,0.047769,0.090420
80,1.040201,-0.034808,0.001452,-0.043472
81,1.039181,0.092302,-0.050526,0.136943
82,1.039094,-0.024342,-0.024232,0.035937
83,1.042261,0.096445,0.053679,-0.051311
84,1.038337,-0.045532,0.021442,0.030867
85,1.033382,0.056389,0.076484,-0.050965
86,1.039661,-0.044664,0.057493,0.057715
87,1.042967,-0.012669,0.049403,0.082072
88,1.039565,0.098192,0.129474,-0.007259
89,1.039519,-0.029735,-0.007026,0.002656
90,1.041881,0.149298,0.104962,0.010926
91,1.041803,0.100906,-0.026176,0.014127
92,1.035482,0.096612,0.080660,-0.089666
93,1.040241,0.099728,0.025060,0.050240
94,1.040877,0.095323,0.068128,-0.004579
95,1.043422,0.108736,0.047943,0.051363
96,1.046010,0.113851,0.012459,0.086098
97,1.038878,-0.044230,0.022353,-0.047404
98,1.041666,0.183348,-0.047309,-0.000586
99,1.045499,0.180393,0.030420,-0.008777
100,1.043904,-0.000008,-97.868859,-0.009501
101,1.038483,0.106911,-0.036915,-0.019267
102,1.028767,-0.041483,0.073355,0.077482
103,1.042977,0.134968,0.009470,0.004014
104,1.039735,0.101505,0.061163,0.026759
105,1.040641,-0.034050,0.010518,0.040104
106,1.046411,0.206002,0.002948,0.012059
107,1.029372,-0.054716,-0.002707,0.056187
108,1.016891,0.099668,11.079527,-0.111747
109,1.023010,-0.139219,-408.876231,26.349775
110,1.023248,-0.156638,-254.297771,-2.284662
111,1.027625,0.015981,-256.851230,4.091289
112,1.019121,-0.128640,-123.177634,-16.572878
113,1.025142,-0.109952,-68.777783,-6.274647
114,1.024412,0.052440,-78.540988,-4.027481
115,1.008897,0.113930,-96.721283,7.881479
116,1.018311,-0.029335,-521.470547,-16.645451
117,1.014720,-0.155898,-71.910795,-2.623194
118,1.021731,0.122396,-61.270857,-5.640776
119,1.034161,-0.119339,-354.223160,-11.748586
120,1.025053,0.062170,-136.207675,-2.557005
121,1.020324,-0.130720,-167.758952,-6.251079
122,1.034586,0.037604,-207.249911,-12.989901
123,1.023864,-0.172740,-253.273580,-8.052407
124,1.028298,-0.072686,-212.692558,32.359381
125,1.024852,-0.102909,-187.588724,-5.617419
126,1.028450,-0.053097,-81.402003,-10.594743
127,1.024279,0.247635,255.363285,-6.759836
128,1.035335,0.014873,-306.342976,-3.287893
129,1.036083,-0.060964,-419.906240,46.797396
130,1.021282,-0.014174,-544.074892,-20.401712
131,1.025494,-0.055304,-88.753773,-23.557781
132,1.014867,0.070168,33.219146,-5.859020
133,1.006967,0.081047,16.252117,3.290825
134,1.023126,0.050043,-120.502874,-1.287907
135,1.021133,-0.164553,-320.493063,-18.811146
136,1.026413,-0.200516,-354.812252,-5.428712
137,1.029078,0.026388,-157.669499,4.505947
138,1.025044,0.081301,-189.738292,-17.069162
139,1.023012,-0.167158,-245.650742,6.908901
140,1.023064,-0.260435,-139.836154,11.728257
141,1.017425,-0.213665,-171.968433,0.810278
142,1.023150,-0.051644,-221.604750,10.021144
143,1.015072,-0.122798,-72.736750,-5.971152
144,1.023755,0.121277,-7.438412,-5.329238
145,1.021290,0.064465,-320.401839,33.267777
146,1.017660,-0.066902,-10.044241,-1.226944
147,1.024067,-0.148411,-112.343155,-3.621214
148,1.010742,0.183247,0.015091,0.008071
149,1.019791,-0.174888,-217.173947,-2.970402
150,1.021683,0.123232,-92.381121,12.694931
151,1.025850,-0.040089,-313.080349,-0.672956
152,1.020366,0.156420,-140.571577,11.328809
153,1.025333,0.227741,-11.132154,-0.783701
154,1.016758,-0.110287,-142.593621,-1.329820
155,1.021077,0.247239,218.670988,0.386359
156,1.021980,0.112850,-28.206547,-1.746564
157,1.019042,0.024661,-121.460696,-5.250003
158,1.028545,0.068943,-86.816382,-0.184978
159,1.028862,-0.052721,30.834054,21.762352
160,1.029022,0.187019,118.136702,-0.714059
161,1.019582,0.154052,176.368441,15.990529
162,1.017858,0.204147,-10.483525,12.872436
163,1.023347,0.085415,-10.982341,2.248713
164,1.023654,-0.031136,6.404116,1.057349
165,1.010597,0.219625,27.698658,-12.775068
166,1.020165,-0.023851,38.649833,-11.991949
167,1.011249,0.189488,-20.141325,3.865933
168,1.027050,-0.122647,-233.539364,3.433866
169,1.024930,-0.019638,104.945100,27.737143
170,1.020915,0.094638,-47.275244,20.273015
171,1.013249,0.024219,-84.652918,1.016627
172,1.010101,0.181745,-43.760760,-1.361437
173,1.034808,0.094825,72.103163,-8.526106
174,1.035369,0.094756,21.063612,-2.736646
175,1.010654,0.019324,54.021209,-15.254534
176,1.010773,0.008673,22.102437,8.637123
177,1.035268,0.090854,0.010620,0.037962
178,1.027707,0.205221,28.983666,1.038095
179,1.037644,0.090824,31.137729,10.295029
180,1.023399,-0.107028,0.080496,0.043809
181,1.025837,0.202325,65.941070,9.104276
182,1.036217,0.091540,0.035347,23.276984
183,1.042104,0.006786,295.033361,-0.667029
184,1.033214,0.080971,0.064407,-0.080335
185,1.029764,-0.084537,0.041953,0.042126
186,1.017313,-0.141718,0.018811,0.026326
187,1.013724,-0.013856,26.510435,12.373285
188,1.013439,-0.013638,26.476273,9.099817
189,1.012813,-0.013740,26.530946,9.239131
190,1.027186,0.098285,0.004736,-0.075655
191,1.042749,0.271197,184.585523,-8.640922
192,1.037975,0.252361,120.016909,-16.347451
193,1.031181,0.112148,0.076918,0.037472
194,1.036353,0.172604,120.011832,4.267579
195,1.024100,0.083668,0.058621,14.834978
196,1.034530,0.149912,93.002636,-23.134093
197,1.032682,0.145401,0.059085,0.005127
198,1.033710,0.149711,-0.061554,-1.209472
199,1.025183,0.040585,-0.083908,-0.012526
200,1.040828,0.259501,-65.411011,16.333095
201,1.040534,0.260108,32.521097,-0.578079
202,1.040729,0.261069,32.466491,-0.556122
203,1.041025,0.259716,122.629411,-12.833278
204,1.021971,-0.092639,0.045436,0.024823
205,1.020944,-0.095328,-0.008530,-0.002447
206,1.030316,0.124126,35.013143,-5.904050
207,1.029872,0.124946,35.087699,-4.944418
208,1.027056,0.098512,0.110584,-0.036842
209,1.027492,0.100954,0.015910,-0.080173
210,1.027196,0.100062,0.091840,0.038132
211,1.026680,0.106173,0.050853,-0.057905
212,1.022241,0.234642,0.028348,-0.086974
213,1.023079,-0.082779,0.072038,-0.050552
214,1.022531,-0.081492,0.033847,-0.008230
215,1.022092,-0.081377,0.050732,0.008397
216,1.022813,-0.081514,0.006467,0.070457
217,1.024058,-0.083426,-0.047636,0.000499
218,1.032623,0.127078,100.524560,34.273596
219,1.022305,-0.096916,0.095967,-0.024295
220,1.033787,0.124110,990.056616,193.673393
221,1.032994,0.122543,0.046936,-0.009516
222,1.022892,-0.047013,391.991473,103.121903
223,1.021552,0.153268,0.045870,-0.037421
224,1.030137,0.180359,0.041880,-0.014903
225,1.046727,0.211574,95.454001,-14.631981
226,1.043027,-0.029069,0.007737,-0.021275
227,1.040982,-0.033573,-0.001315,-30.820928
228,1.041122,-0.033991,0.011284,17.360199
229,1.041064,0.102149,0.048016,34.153306
230,1.042026,0.101694,-0.027758,4.003922
231,1.044893,0.149316,0.080677,12.365938
232,1.045115,0.113275,157.552889,2.527218
233,1.045772,0.114374,157.527175,2.853414
234,1.042422,-0.006580,295.076270,-17.807428
235,1.043887,-0.006752,294.923388,-18.052577
236,1.042227,-0.006330,295.003756,-18.123230
237,1.044834,0.179437,288.105487,2.582395
238,1.044227,0.180891,288.047114,2.519393
239,1.043393,0.000152,392.014700,2.543173
240,1.043537,0.000179,392.052809,81.533211
241,1.044473,0.117388,413.093627,-5.694954
242,1.043697,0.115048,413.036666,-0.531657
243,1.044864,0.180310,418.492392,3.405002
244,1.044523,0.180298,418.573101,2.487563
245,1.018344,-0.076813,-52.542848,-16.554844
246,1.022245,-0.107886,-23.634127,-5.357739
247,1.017211,-0.141484,-2.543647,0.134957
248,1.018926,0.202242,-1.083228,0.263315
249,1.022741,-0.107714,-5.748936,1.168153
250,1.037136,-0.041567,-101.820361,6.062362
251,1.025358,0.093901,105.816520,-4.327242
252,1.023803,0.300713,167.726231,-20.061705
253,1.021162,0.274617,113.792492,-12.430704
254,1.031207,0.204957,239.523836,-31.477321
255,1.036318,-0.050739,-116.695295,14.121652
256,1.026853,0.097903,-11.018259,-0.618228
257,1.025853,0.155862,-1.300022,0.718781
258,1.023492,0.085943,-1.703933,0.545485
259,1.026091,0.191266,-0.056721,0.771657
260,0.981785,-0.121216,-158.826463,-50.509722
261,1.019338,0.209113,-1.113230,0.507474
262,1.021836,0.176852,221.531935,-35.676479
263,1.023268,0.248184,123.504639,-23.286142
264,1.030867,0.189209,255.513295,-39.756288
265,1.021836,0.153509,101.653318,-1.918715
266,1.022812,0.234358,130.007277,-11.689788
267,1.030468,0.196415,167.170712,-28.965897
268,1.042655,0.153447,145.262353,9.369441
269,1.009941,0.137878,0.068479,0.041131
270,1.009313,0.138628,-0.032543,0.019152
271,1.009446,0.156782,-0.034047,-0.041054
272,1.010535,0.196952,-0.044821,-0.008337
273,1.029218,-0.008567,29.995179,12.386584
274,1.028524,-0.008964,0.034290,-0.088773
275,1.027175,-0.010462,0.102775,0.031240
276,1.022665,-0.021654,0.037081,-0.037038
277,1.022848,-0.021909,0.055446,0.051669
278,1.020070,-0.024353,0.073751,-0.039472
279,1.019707,-0.028770,0.059193,-0.024367
280,1.022411,-0.013063,0.016931,0.022808
281,1.025472,-0.011698,0.005059,0.021370
282,1.027796,-0.008409,-0.055069,-0.063968
283,1.014152,0.071166,0.006187,-0.016106
284,1.019665,0.065496,0.023985,-0.003705
285,1.018674,0.066137,0.009466,0.045424
286,1.021419,0.064020,-0.028241,-0.016770
287,1.007392,0.084627,-0.005001,0.002136
288,1.008631,0.084998,-0.046954,-0.003703
289,1.009184,0.094464,-0.044758,-0.063988
290,1.010890,0.103226,0.019314,-0.017144
291,1.011410,0.103122,-0.067231,-0.025663
292,1.010841,0.102353,-0.071764,-0.044361
293,1.012652,0.118701,25.940045,-8.644889
294,1.012313,0.185242,0.007653,-0.019869
295,1.012019,0.188049,0.100617,-0.040224
296,1.011833,0.188535,0.051432,-0.009811
297,1.011733,0.188649,0.006042,-0.052730
298,1.012242,0.210813,-0.026772,-0.051363
299,1.012180,0.210215,-0.002354,0.081597
300,1.012405,0.211225,0.032539,-0.018790
301,1.012235,0.203054,0.036807,-0.078214
302,1.011341,0.195335,0.139072,-0.041639
303,1.011619,0.186213,0.050853,0.102698
304,1.011106,0.187078,-0.044517,-0.019614
